Version 4
SHEET 1 880 680
WIRE 128 -512 -352 -512
WIRE -176 -400 -176 -480
WIRE -352 -320 -352 -512
WIRE -304 -320 -352 -320
WIRE 32 -272 -32 -272
WIRE 128 -272 128 -512
WIRE 128 -272 96 -272
WIRE 160 -272 128 -272
WIRE 432 -272 160 -272
WIRE 480 -272 432 -272
WIRE -304 -240 -576 -240
WIRE 368 -224 304 -224
WIRE 160 -176 160 -208
WIRE 304 -144 240 -144
WIRE 432 -144 432 -176
WIRE 240 -128 240 -144
WIRE -176 0 -176 -144
FLAG -176 -480 +15
IOPIN -176 -480 In
FLAG -176 0 -15
IOPIN -176 0 In
FLAG 480 -272 Vmemory
FLAG 432 -144 0
FLAG 160 -176 0
FLAG 240 -48 0
FLAG -656 -240 0
SYMBOL sims2\\SIMS\\LM741_opamp -256 -256 R0
SYMATTR InstName X1
SYMBOL diode 32 -256 R270
WINDOW 0 32 32 VTop 2
WINDOW 3 0 32 VBottom 2
SYMATTR InstName D1
SYMBOL cap 144 -272 R0
SYMATTR InstName C1
SYMATTR Value 0.2µ
SYMBOL npn 368 -272 R0
SYMATTR InstName Q1
SYMBOL voltage -560 -240 R90
WINDOW 3 -77 -6 VRight 2
WINDOW 123 0 0 Left 0
WINDOW 39 0 0 Left 0
WINDOW 0 28 -150 VRight 2
SYMATTR Value SINE(0 15 100 0 0 0 30)
SYMATTR InstName V‡Sauvgarder1
SYMBOL voltage 240 -144 R0
WINDOW 3 -224 126 Left 2
WINDOW 123 0 0 Left 0
WINDOW 39 0 0 Left 0
SYMATTR Value PULSE(0 0.8 0 1m 1m 2.5m 10m 30)
SYMATTR InstName R‡1
SYMBOL res 288 -240 R0
SYMATTR InstName R1
SYMATTR Value 100k
