Version 4
SHEET 1 3540 1236
WIRE 3024 -1344 2912 -1344
WIRE 3280 -1344 3104 -1344
WIRE 528 -1328 448 -1328
WIRE 880 -1328 800 -1328
WIRE 448 -1312 448 -1328
WIRE 800 -1312 800 -1328
WIRE 368 -1296 368 -1312
WIRE 720 -1296 720 -1312
WIRE 1840 -1264 1840 -1296
WIRE 1184 -1232 1184 -1264
WIRE 320 -1216 256 -1216
WIRE 672 -1216 608 -1216
WIRE 2304 -1216 2192 -1216
WIRE 1392 -1168 1392 -1200
WIRE 1456 -1168 1392 -1168
WIRE 1504 -1168 1504 -1200
WIRE 1504 -1168 1456 -1168
WIRE 2816 -1168 2608 -1168
WIRE 2912 -1168 2912 -1344
WIRE 2912 -1168 2896 -1168
WIRE 2976 -1168 2912 -1168
WIRE 1456 -1152 1456 -1168
WIRE 3280 -1120 3280 -1344
WIRE 3280 -1120 3248 -1120
WIRE 3360 -1120 3280 -1120
WIRE 3536 -1120 3360 -1120
WIRE 2976 -1088 2912 -1088
WIRE 1328 -608 944 -608
WIRE 1328 -592 1328 -608
WIRE 1344 -592 1328 -592
WIRE 2048 -592 1888 -592
WIRE 2320 -592 2128 -592
WIRE 2320 -544 2320 -592
WIRE 2320 -544 2256 -544
WIRE 2432 -544 2320 -544
WIRE 2000 -512 1936 -512
WIRE 2224 -512 2256 -544
WIRE 1424 -496 1424 -592
WIRE 1456 -496 1424 -496
WIRE 1360 -448 1280 -448
WIRE 1520 -448 1360 -448
WIRE 2000 -448 1520 -448
WIRE 2256 -448 2256 -464
WIRE 2256 -448 2224 -448
WIRE 2304 -448 2256 -448
WIRE 1888 -384 1888 -592
WIRE 1888 -384 1792 -384
WIRE 2000 -384 1888 -384
WIRE 2256 -384 2256 -448
WIRE 2256 -384 2224 -384
WIRE 2000 -320 1904 -320
WIRE 2256 -320 2224 -320
FLAG 1840 -1296 0
FLAG 1456 -1152 0
FLAG 1392 -1280 +15
IOPIN 1392 -1280 Out
FLAG 1504 -1280 -15
IOPIN 1504 -1280 Out
FLAG 1840 -1184 Demande
IOPIN 1840 -1184 Out
FLAG 2320 -320 0
FLAG 1936 -512 0
FLAG 2368 -448 0
FLAG 1792 -384 Out555
FLAG 1184 -1152 0
FLAG 1184 -1264 VCC
IOPIN 1184 -1264 Out
FLAG 2432 -544 VCC
IOPIN 2432 -544 In
FLAG 1904 -320 VCC
IOPIN 1904 -320 In
FLAG 2112 -1216 0
FLAG 256 -1136 0
FLAG 368 -1200 0
FLAG 528 -1248 0
FLAG 608 -1136 0
FLAG 720 -1200 0
FLAG 880 -1248 0
FLAG 3104 -1248 +15
IOPIN 3104 -1248 In
FLAG 3104 -992 -15
IOPIN 3104 -992 In
FLAG 2912 -1088 0
FLAG 1200 -448 VCC
IOPIN 1200 -448 In
FLAG 1520 -624 0
FLAG 1360 -448 Inv-Demande
FLAG 944 -608 Demande
IOPIN 944 -608 In
FLAG 2304 -1216 SIN
IOPIN 2304 -1216 Out
FLAG 3360 -1120 AOP_Inv
SYMBOL Misc\\NE555 2112 -416 R0
SYMATTR InstName U1
SYMBOL voltage 1840 -1168 R180
WINDOW 3 -151 157 Left 2
WINDOW 123 0 0 Left 0
WINDOW 39 0 0 Left 0
SYMATTR Value PULSE(0 5 2u 2u 2u 90u 105u 50)
SYMATTR InstName V1
SYMBOL voltage 1392 -1296 R0
WINDOW 123 0 0 Left 0
WINDOW 39 0 0 Left 0
SYMATTR InstName V2
SYMATTR Value 15
SYMBOL voltage 1504 -1184 R180
WINDOW 0 24 96 Left 2
WINDOW 3 24 16 Left 2
WINDOW 123 0 0 Left 0
WINDOW 39 0 0 Left 0
SYMATTR InstName V3
SYMATTR Value 15
SYMBOL cap 2320 -336 R90
WINDOW 0 0 32 VBottom 2
WINDOW 3 32 32 VTop 2
SYMATTR InstName C1
SYMATTR Value 0.1µ
SYMBOL res 2144 -608 R90
WINDOW 0 0 56 VBottom 2
WINDOW 3 32 56 VTop 2
SYMATTR InstName RL
SYMATTR Value 10k
SYMBOL cap 2368 -464 R90
WINDOW 0 0 32 VBottom 2
WINDOW 3 32 32 VTop 2
SYMATTR InstName C
SYMATTR Value 0.01µ
SYMBOL voltage 1184 -1248 R0
WINDOW 123 0 0 Left 0
WINDOW 39 0 0 Left 0
SYMATTR InstName V4
SYMATTR Value 5
SYMBOL res 2240 -560 R0
SYMATTR InstName RA
SYMATTR Value 10
SYMBOL voltage 2208 -1216 R90
WINDOW 0 -32 56 VBottom 2
WINDOW 3 -113 -5 VTop 2
WINDOW 123 0 0 Left 0
WINDOW 39 0 0 Left 0
SYMATTR InstName V5
SYMATTR Value SINE(0 5 0.5e4 0 0 0 4)
SYMBOL voltage 256 -1232 R0
WINDOW 123 0 0 Left 0
WINDOW 39 0 0 Left 0
SYMATTR InstName V8
SYMATTR Value SINE(0 0.8 10 0 0 0 5)
SYMBOL res 464 -1328 R90
WINDOW 0 0 56 VBottom 2
WINDOW 3 32 56 VTop 2
SYMATTR InstName R2
SYMATTR Value 100k
SYMBOL voltage 528 -1344 R0
WINDOW 123 0 0 Left 0
WINDOW 39 0 0 Left 0
SYMATTR InstName V9
SYMATTR Value 5
SYMBOL nmos 320 -1296 R0
SYMATTR InstName M1
SYMBOL voltage 608 -1232 R0
WINDOW 123 0 0 Left 0
WINDOW 39 0 0 Left 0
SYMATTR InstName V10
SYMATTR Value SINE(0 0.8 10 0 0 0 5)
SYMBOL res 816 -1328 R90
WINDOW 0 0 56 VBottom 2
WINDOW 3 32 56 VTop 2
SYMATTR InstName R4
SYMATTR Value 100k
SYMBOL voltage 880 -1344 R0
WINDOW 123 0 0 Left 0
WINDOW 39 0 0 Left 0
SYMATTR InstName V11
SYMATTR Value 5
SYMBOL pmos 672 -1296 R0
SYMATTR InstName M2
SYMBOL sims2\\SIMS\\LM741_opamp 3024 -1104 R0
SYMATTR InstName X2
SYMBOL res 3120 -1360 R90
WINDOW 0 0 56 VBottom 2
WINDOW 3 32 56 VTop 2
SYMATTR InstName R5
SYMATTR Value 1k
SYMBOL res 2912 -1184 R90
WINDOW 0 0 56 VBottom 2
WINDOW 3 32 56 VTop 2
SYMATTR InstName R6
SYMATTR Value 1k
SYMBOL res 1296 -464 R90
WINDOW 0 0 56 VBottom 2
WINDOW 3 32 56 VTop 2
SYMATTR InstName R3
SYMATTR Value 1k
SYMBOL res 1440 -608 R90
WINDOW 0 0 56 VBottom 2
WINDOW 3 32 56 VTop 2
SYMATTR InstName R8
SYMATTR Value 7.14
SYMBOL npn 1456 -544 R0
SYMATTR InstName Q2
SYMBOL res 1504 -640 R0
SYMATTR InstName R9
SYMATTR Value 1k
TEXT -160 -1232 Left 2 !.tran 0 1.2ms 0 0.5e-3
