Version 4
SHEET 1 880 692
WIRE -480 32 -528 32
WIRE -336 32 -400 32
WIRE -96 64 -192 64
WIRE 64 64 -16 64
WIRE -528 176 -528 32
WIRE -480 176 -528 176
WIRE -336 208 -336 32
WIRE -304 208 -336 208
WIRE -192 208 -192 64
WIRE -144 208 -192 208
WIRE -112 208 -144 208
WIRE -512 240 -528 240
WIRE -480 240 -512 240
WIRE 64 240 64 64
WIRE 64 240 32 240
WIRE 96 240 64 240
WIRE -528 256 -528 240
WIRE -112 272 -192 272
FLAG -528 336 0
FLAG -304 208 voutd
FLAG -592 176 0
FLAG -416 256 0
FLAG -624 96 0
FLAG -624 16 VDD
FLAG -416 144 VDD
FLAG -48 176 VDD
FLAG -48 288 0
FLAG -512 240 vin
FLAG -144 208 vin
FLAG 96 240 voutc
SYMBOL voltage -528 240 R0
WINDOW 123 24 124 Left 2
WINDOW 39 0 0 Left 2
SYMATTR Value2 AC 1
SYMATTR InstName V1
SYMATTR Value 2
SYMBOL voltage -624 0 R0
SYMATTR InstName V2
SYMATTR Value {X}
SYMBOL res -496 48 R270
WINDOW 0 32 56 VTop 2
WINDOW 3 0 56 VBottom 2
SYMATTR InstName R1
SYMATTR Value 100MEG
SYMBOL cap -528 160 R90
WINDOW 0 0 32 VBottom 2
WINDOW 3 32 32 VTop 2
SYMATTR InstName C2
SYMATTR Value 10µ
SYMBOL cap -208 208 R0
SYMATTR InstName C1
SYMATTR Value 10µ
SYMBOL res -112 80 R270
WINDOW 0 32 56 VTop 2
WINDOW 3 0 56 VBottom 2
SYMATTR InstName R2
SYMATTR Value 100MEG
SYMBOL FINALPROJECT_foldedcascodeBlock -416 208 R0
SYMATTR InstName X3
SYMBOL FINALPROJECT_foldedcascodeBlock -48 240 R0
SYMATTR InstName X4
TEXT -184 336 Left 2 !.ac dec 10 1k 1G
TEXT -192 376 Left 2 !.step param X 4 6 1
