Version 4
SHEET 1 880 680
WIRE 128 16 32 16
WIRE 336 16 208 16
WIRE -80 144 -176 144
WIRE 32 144 32 16
WIRE 32 144 0 144
WIRE 80 144 32 144
WIRE -176 176 -176 144
WIRE 336 176 336 16
WIRE 336 176 240 176
WIRE 368 176 336 176
WIRE 80 208 16 208
WIRE 16 272 16 208
WIRE -176 288 -176 256
FLAG -176 288 0
FLAG 16 272 0
SYMBOL OP_AMP001 144 176 R0
SYMATTR InstName X1
SYMBOL res 16 128 R90
WINDOW 0 0 56 VBottom 2
WINDOW 3 32 56 VTop 2
SYMATTR InstName R1
SYMATTR Value 500
SYMBOL res 224 0 R90
WINDOW 0 0 56 VBottom 2
WINDOW 3 32 56 VTop 2
SYMATTR InstName R2
SYMATTR Value 1k
SYMBOL voltage -176 160 R0
WINDOW 123 0 0 Left 2
WINDOW 39 0 0 Left 2
SYMATTR InstName V1
SYMATTR Value 10
TEXT -176 80 Left 2 ;i1=V1/R1
TEXT 232 -8 Left 2 ;i2=-vout/R2
TEXT -256 0 Left 2 ;Gain = -R2/R1= Vout/V1
TEXT -258 312 Left 2 !.tran 1m
