Version 4
SHEET 1 880 680
WIRE 144 144 -64 144
WIRE 448 176 304 176
WIRE 144 208 48 208
WIRE -64 272 -64 224
WIRE 48 288 48 208
FLAG 48 288 0
FLAG -64 272 0
FLAG 448 176 vout
SYMBOL OP_AMP001 208 176 R0
SYMATTR InstName X1
SYMBOL voltage -64 128 R0
WINDOW 123 0 0 Left 2
WINDOW 39 0 0 Left 2
SYMATTR InstName V1
SYMATTR Value 1
TEXT -98 312 Left 2 !.tran 1m
