Version 4
SHEET 1 3036 680
WIRE -1920 -1648 -2000 -1648
WIRE -1920 -1616 -2000 -1616
WIRE -1008 -1600 -1088 -1600
WIRE -560 -1600 -1008 -1600
WIRE -1920 -1584 -2000 -1584
WIRE -1920 -1552 -2000 -1552
WIRE -1136 -1536 -1136 -1584
WIRE -1136 -1536 -1168 -1536
WIRE -512 -1536 -512 -1584
WIRE -480 -1536 -512 -1536
WIRE -1920 -1520 -2000 -1520
WIRE -1920 -1488 -2000 -1488
WIRE -1920 -1456 -2000 -1456
WIRE -1136 -1456 -1136 -1536
WIRE -512 -1456 -512 -1536
WIRE -1920 -1424 -2000 -1424
WIRE -608 -1376 -624 -1376
WIRE -560 -1376 -608 -1376
WIRE -1136 -1344 -1136 -1360
WIRE -1136 -1344 -1328 -1344
WIRE -1008 -1344 -1008 -1600
WIRE -1008 -1344 -1136 -1344
WIRE -512 -1312 -512 -1360
WIRE -512 -1312 -688 -1312
WIRE -1328 -1296 -1328 -1344
WIRE -512 -1296 -512 -1312
WIRE -336 -1296 -512 -1296
WIRE -288 -1200 -288 -1280
WIRE -256 -1200 -288 -1200
WIRE -1136 -1168 -1136 -1344
WIRE -512 -1168 -512 -1296
WIRE -2016 -1104 -2016 -1120
WIRE -1584 -1104 -1584 -1120
WIRE -1584 -1104 -2016 -1104
WIRE -288 -1088 -288 -1200
WIRE -2016 -1040 -2016 -1104
WIRE -1584 -1040 -1584 -1104
WIRE -1328 -1024 -1328 -1200
WIRE -1136 -1024 -1136 -1072
WIRE -1136 -1024 -1328 -1024
WIRE -992 -1024 -1136 -1024
WIRE -688 -1008 -688 -1216
WIRE -512 -1008 -512 -1072
WIRE -512 -1008 -688 -1008
WIRE -336 -1008 -512 -1008
WIRE -1792 -960 -1968 -960
WIRE -1632 -960 -1792 -960
WIRE -1136 -912 -1136 -1024
WIRE -512 -912 -512 -1008
WIRE -2016 -880 -2016 -944
WIRE -1584 -880 -1584 -944
WIRE -1056 -832 -1088 -832
WIRE -1792 -800 -1968 -800
WIRE -1632 -800 -1792 -800
WIRE -512 -752 -512 -816
WIRE -1136 -736 -1136 -816
WIRE -1136 -704 -1136 -736
WIRE -512 -704 -512 -752
WIRE -992 -624 -992 -1024
WIRE -992 -624 -1088 -624
WIRE -560 -624 -992 -624
FLAG -1792 -800 Vbias4
FLAG -1792 -960 Vbias3
FLAG -1056 -832 Vbias3
FLAG -1136 -1680 VDD
IOPIN -1136 -1680 In
FLAG -512 -1680 VDD
IOPIN -512 -1680 In
FLAG -1088 -1376 Vbias2
FLAG -1184 -1088 Vncas
FLAG -560 -1088 Vncas
FLAG -2016 -1216 Vnp
FLAG -1584 -1216 Vnm
FLAG -1168 -1536 Vnp
FLAG -288 -1376 VDD
IOPIN -288 -1376 In
FLAG -288 -1328 VDD
IOPIN -288 -1328 In
FLAG -480 -1536 Vnm
FLAG -256 -1200 vout
IOPIN -256 -1200 Out
FLAG -2064 -1136 -
IOPIN -2064 -1136 In
FLAG -1536 -1136 +
IOPIN -1536 -1136 In
FLAG -1584 -784 GND
IOPIN -1584 -784 In
FLAG -2016 -784 GND
IOPIN -2016 -784 In
FLAG -1136 -608 GND
IOPIN -1136 -608 In
FLAG -512 -608 GND
IOPIN -512 -608 In
FLAG -512 -656 GND
IOPIN -512 -656 In
FLAG -1136 -656 GND
IOPIN -1136 -656 In
FLAG -2016 -832 GND
IOPIN -2016 -832 In
FLAG -1584 -832 GND
IOPIN -1584 -832 In
FLAG -288 -1040 GND
IOPIN -288 -1040 In
FLAG -288 -992 GND
IOPIN -288 -992 In
FLAG -1136 -1632 VDD
IOPIN -1136 -1632 In
FLAG -512 -1632 VDD
IOPIN -512 -1632 In
FLAG -1136 -864 GND
IOPIN -1136 -864 In
FLAG -512 -864 GND
IOPIN -512 -864 In
FLAG -1136 -1120 GND
IOPIN -1136 -1120 In
FLAG -512 -1120 GND
IOPIN -512 -1120 In
FLAG -1328 -1248 VDD
IOPIN -1328 -1248 In
FLAG -512 -1408 VDD
IOPIN -512 -1408 In
FLAG -2016 -992 GND
IOPIN -2016 -992 In
FLAG -1584 -992 GND
IOPIN -1584 -992 In
FLAG -1584 -1168 GND
IOPIN -1584 -1168 In
FLAG -2016 -1168 GND
IOPIN -2016 -1168 In
FLAG -2176 -1520 VDD
IOPIN -2176 -1520 In
FLAG -2176 -1552 GND
IOPIN -2176 -1552 In
FLAG -1136 -1408 VDD
IOPIN -1136 -1408 In
FLAG -688 -1264 VDD
IOPIN -688 -1264 In
FLAG -1376 -1216 Vpcas
FLAG -736 -1232 Vpcas
FLAG -1920 -1648 Vbias1
FLAG -1920 -1616 Vbias2
FLAG -1920 -1584 Vbias3
FLAG -1920 -1552 Vbias4
FLAG -1920 -1520 Vhigh
FLAG -1920 -1488 Vlow
FLAG -1920 -1456 Vncas
FLAG -1920 -1424 Vpcas
FLAG -80 -1616 Vnp
FLAG -80 -1568 Vnm
FLAG -80 -1520 Vbias4
FLAG 112 -1552 Ngain
FLAG 16 -1456 0
FLAG -1136 -736 Vpp
FLAG -128 -752 Vpp
FLAG -512 -752 Vpm
FLAG -128 -704 Vpm
FLAG -128 -656 Vbias1
FLAG -32 -592 0
FLAG 64 -688 Pgain
FLAG 16 -1648 VDD
IOPIN 16 -1648 In
FLAG -32 -784 VDD
IOPIN -32 -784 In
FLAG -224 -1504 0
FLAG -240 -816 0
FLAG -224 -1568 Ngain
FLAG -240 -880 Pgain
FLAG -608 -1376 Ngain
FLAG -560 -832 Pgain
SYMBOL BMRCASC -2096 -1536 R0
WINDOW 39 790 -220 Right 2
WINDOW 0 -80 -21 Right 2
SYMATTR SpiceLine BMRR =14K L =.6u NW = 3.6u PW = 9.6u
SYMATTR InstName X1
SYMBOL nmos4 -2064 -1216 R0
WINDOW 0 67 -22 Left 2
WINDOW 3 62 10 Left 2
WINDOW 123 59 91 Left 2
SYMATTR InstName M1
SYMATTR Value C5NMOS
SYMATTR Value2 l={L} w={NW} m=30
SYMBOL nmos4 -1968 -1040 M0
WINDOW 0 66 -10 Left 2
WINDOW 3 63 14 Left 2
WINDOW 123 57 77 Left 2
SYMATTR InstName M3LT
SYMATTR Value C5NMOS
SYMATTR Value2 l={L} w={NW}
SYMBOL nmos4 -1968 -880 M0
WINDOW 0 60 -8 Left 2
WINDOW 3 58 19 Left 2
WINDOW 123 61 81 Left 2
SYMATTR InstName M3LB
SYMATTR Value C5NMOS
SYMATTR Value2 l={L} w={NW}
SYMBOL nmos4 -1536 -1216 M0
WINDOW 0 68 -44 Left 2
WINDOW 3 65 -15 Left 2
WINDOW 123 56 85 Left 2
SYMATTR InstName M2
SYMATTR Value C5NMOS
SYMATTR Value2 l={L} w={NW} m=30
SYMBOL nmos4 -1632 -1040 R0
WINDOW 0 60 -10 Left 2
WINDOW 3 56 14 Left 2
WINDOW 123 63 82 Left 2
SYMATTR InstName M3RT
SYMATTR Value C5NMOS
SYMATTR Value2 l={L} w={NW}
SYMBOL nmos4 -1632 -880 R0
WINDOW 0 52 -9 Left 2
WINDOW 3 52 17 Left 2
WINDOW 123 59 82 Left 2
SYMATTR InstName M3RB
SYMATTR Value C5NMOS
SYMATTR Value2 l={L} w={NW}
SYMBOL nmos4 -1088 -704 M0
WINDOW 0 58 -28 Left 2
WINDOW 3 56 7 Left 2
WINDOW 123 56 82 Left 2
SYMATTR InstName M14
SYMATTR Value C5NMOS
SYMATTR Value2 l={L} w={NW} m=2
SYMBOL nmos4 -560 -704 R0
WINDOW 0 58 -15 Left 2
WINDOW 3 58 11 Left 2
WINDOW 123 71 89 Left 2
SYMATTR InstName M15
SYMATTR Value C5NMOS
SYMATTR Value2 l={L} w={NW} m=2
SYMBOL nmos4 -1088 -912 M0
WINDOW 0 61 -25 Left 2
WINDOW 3 63 10 Left 2
WINDOW 123 58 87 Left 2
SYMATTR InstName M12
SYMATTR Value C5NMOS
SYMATTR Value2 l={L} w={NW}
SYMBOL nmos4 -560 -912 R0
WINDOW 0 62 -14 Left 2
WINDOW 3 54 15 Left 2
WINDOW 123 56 82 Left 2
SYMATTR InstName M13
SYMATTR Value C5NMOS
SYMATTR Value2 l={L} w={NW}
SYMBOL nmos4 -560 -1168 R0
WINDOW 0 54 -9 Left 2
WINDOW 3 53 18 Left 2
WINDOW 123 52 79 Left 2
SYMATTR InstName NCas2
SYMATTR Value C5NMOS
SYMATTR Value2 l={L} w={NCAS}
SYMBOL nmos4 -1184 -1168 R0
WINDOW 0 69 -26 Left 2
WINDOW 3 61 15 Left 2
WINDOW 123 54 102 Left 2
SYMATTR InstName M10
SYMATTR Value C5NMOS
SYMATTR Value2 l={L} w={NCAS}
SYMBOL pmos4 -1088 -1456 M0
WINDOW 3 54 12 Left 2
WINDOW 0 60 -21 Left 2
WINDOW 123 60 77 Left 2
SYMATTR Value C5PMOS
SYMATTR InstName M7
SYMATTR Value2 l={L} w={PW}
SYMBOL pmos4 -560 -1456 R0
WINDOW 0 63 -36 Left 2
WINDOW 3 60 1 Left 2
WINDOW 123 57 80 Left 2
SYMATTR InstName M8
SYMATTR Value C5PMOS
SYMATTR Value2 l={L} w={PW}
SYMBOL pmos4 -560 -1680 R0
WINDOW 0 70 -20 Left 2
WINDOW 3 61 10 Left 2
WINDOW 123 70 84 Left 2
SYMATTR InstName M6
SYMATTR Value C5PMOS
SYMATTR Value2 l={L} w={PW} m=2
SYMBOL pmos4 -1088 -1680 M0
WINDOW 0 69 -15 Left 2
WINDOW 3 58 14 Left 2
WINDOW 123 59 76 Left 2
SYMATTR InstName M5
SYMATTR Value C5PMOS
SYMATTR Value2 l={L} w={PW} m=2
SYMBOL pmos4 -336 -1376 R0
WINDOW 0 71 -5 Left 2
WINDOW 3 59 20 Left 2
WINDOW 123 61 86 Left 2
SYMATTR InstName MOP
SYMATTR Value C5PMOS
SYMATTR Value2 l={L} w={PW} m=300
SYMBOL nmos4 -336 -1088 R0
WINDOW 0 59 -7 Left 2
WINDOW 3 56 21 Left 2
WINDOW 123 68 86 Left 2
SYMATTR InstName MON
SYMATTR Value C5NMOS
SYMATTR Value2 l={L} w={NW} m=300
SYMBOL pmos4 -1376 -1296 R0
WINDOW 0 56 -12 Left 2
WINDOW 3 56 12 Left 2
WINDOW 123 49 93 Left 2
SYMATTR InstName M9
SYMATTR Value C5PMOS
SYMATTR Value2 l={L} w={PCAS}
SYMBOL pmos4 -736 -1312 R0
WINDOW 0 39 -18 Left 2
WINDOW 3 56 23 Left 2
WINDOW 123 45 85 Left 2
SYMATTR InstName M11
SYMATTR Value C5PMOS
SYMATTR Value2 l={L}  w={PCAS}
SYMBOL nmosGainEnhancement 16 -1552 R0
WINDOW 39 -1 149 Bottom 2
SYMATTR SpiceLine L=.6u NW=3.6u PW=9.6u
SYMATTR InstName X2
SYMBOL gainEnhancementPmos -32 -688 R0
WINDOW 39 8 154 Bottom 2
SYMATTR SpiceLine L=.6u NW=3.6u PW=9.6u
SYMATTR InstName X3
SYMBOL cap -240 -1568 R0
SYMATTR InstName C1
SYMATTR Value 100f
SYMBOL cap -256 -880 R0
SYMATTR InstName C2
SYMATTR Value 100f
TEXT -1728 -1728 Left 2 !.include C5_models.txt
TEXT -2008 -1720 Left 2 !.options plotwinsize=0
TEXT -2456 -1536 Left 2 !.param L = .6u
TEXT -2456 -1504 Left 2 !.param PW = 9.6u
TEXT -2456 -1472 Left 2 !.param NW = 3.6u
TEXT -2440 -1624 Left 2 !.param NCAS = 1.8u
TEXT -2440 -1592 Left 2 !.param PCAS = 4.8u
