Version 4
SHEET 1 880 680
WIRE 368 -3008 272 -3008
WIRE 544 -3008 448 -3008
WIRE 64 -2976 64 -3008
WIRE 416 -2896 416 -2928
WIRE 64 -2864 64 -2912
WIRE 128 -2864 64 -2864
WIRE 272 -2864 272 -3008
WIRE 272 -2864 208 -2864
WIRE 352 -2864 272 -2864
WIRE 544 -2832 544 -3008
WIRE 544 -2832 496 -2832
WIRE 592 -2832 544 -2832
WIRE 672 -2832 656 -2832
WIRE 688 -2832 672 -2832
WIRE -272 -2800 -352 -2800
WIRE -128 -2800 -128 -2832
WIRE -128 -2800 -208 -2800
WIRE 352 -2800 -128 -2800
WIRE -352 -2768 -352 -2800
WIRE -128 -2768 -128 -2800
WIRE 416 -2752 416 -2784
WIRE 688 -2736 688 -2752
FLAG 416 -2752 0
FLAG -352 -2688 0
FLAG -304 -3024 VDD
FLAG -304 -2944 0
FLAG 416 -2928 VDD
FLAG -128 -2912 VDD
FLAG -128 -2688 0
FLAG 64 -3008 0
FLAG 672 -2832 Vout
FLAG -352 -2800 Vin
FLAG 688 -2736 0
SYMBOL FINALPROJECT_foldedcascodeBlock 416 -2832 R0
SYMATTR InstName X1
SYMBOL res 464 -3024 R90
WINDOW 0 8 134 VBottom 2
WINDOW 3 -27 57 VTop 2
SYMATTR InstName R1
SYMATTR Value 20k
SYMBOL voltage -352 -2784 R0
WINDOW 123 24 180 Left 2
WINDOW 39 0 0 Left 2
WINDOW 3 24 152 Left 2
SYMATTR Value2 AC 1
SYMATTR Value SINE(0 1m 1k)
SYMATTR InstName V1
SYMBOL voltage -304 -3040 R0
WINDOW 123 0 0 Left 2
WINDOW 39 0 0 Left 2
SYMATTR InstName VDD
SYMATTR Value 5
SYMBOL cap 656 -2848 R90
WINDOW 0 0 32 VBottom 2
WINDOW 3 32 32 VTop 2
SYMATTR InstName C2
SYMATTR Value 3m
SYMBOL res -144 -2928 R0
SYMATTR InstName R3
SYMATTR Value 10K
SYMBOL res -144 -2784 R0
SYMATTR InstName R4
SYMATTR Value 10K
SYMBOL cap -208 -2816 R90
WINDOW 0 0 32 VBottom 2
WINDOW 3 32 32 VTop 2
SYMATTR InstName C3
SYMATTR Value 10µ
SYMBOL cap 48 -2976 R0
SYMATTR InstName C1
SYMATTR Value 1m
SYMBOL res 224 -2880 R90
WINDOW 0 0 56 VBottom 2
WINDOW 3 32 56 VTop 2
SYMATTR InstName R5
SYMATTR Value 1k
SYMBOL res 672 -2848 R0
SYMATTR InstName R2
SYMATTR Value 8
TEXT 288 -2664 Left 2 !.ac dec 10 10 100MEG
TEXT 288 -2696 Left 2 !.include C5_models.txt
TEXT 296 -2632 Left 2 !;.FOUR 1k V(Vout)
