Version 4
SHEET 1 880 680
WIRE 32 128 -64 128
WIRE 112 128 32 128
WIRE -64 144 -64 128
WIRE 352 160 272 160
WIRE 112 192 64 192
WIRE -64 288 -64 224
WIRE 64 288 64 192
FLAG 64 288 0
FLAG -64 288 0
FLAG 352 160 vout
FLAG 32 128 vin
SYMBOL MY_IDEAL_opamp 176 160 R0
SYMATTR InstName X1
SYMBOL voltage -64 128 R0
WINDOW 123 0 0 Left 2
WINDOW 39 0 0 Left 2
SYMATTR InstName V1
SYMATTR Value 3.5
TEXT -98 312 Left 2 !.tran 1m
