Version 4
SHEET 1 880 680
WIRE 144 16 32 16
WIRE 336 16 224 16
WIRE -160 144 -256 144
WIRE 32 144 32 16
WIRE 32 144 -80 144
WIRE 80 144 32 144
WIRE -256 176 -256 144
WIRE 336 176 336 16
WIRE 336 176 240 176
WIRE 432 176 336 176
WIRE 80 208 32 208
WIRE 32 272 32 208
FLAG -256 256 0
FLAG 432 176 vout
FLAG 32 272 0
SYMBOL OP_AMP001 144 176 R0
SYMATTR InstName X1
SYMBOL res -64 128 R90
WINDOW 0 0 56 VBottom 2
WINDOW 3 32 56 VTop 2
SYMATTR InstName R1
SYMATTR Value 5k
SYMBOL res 240 0 R90
WINDOW 0 0 56 VBottom 2
WINDOW 3 32 56 VTop 2
SYMATTR InstName R2
SYMATTR Value 5k
SYMBOL voltage -256 160 R0
WINDOW 123 0 0 Left 2
WINDOW 39 0 0 Left 2
SYMATTR InstName V1
SYMATTR Value SINE(0 1 1k)
TEXT -232 -88 Left 2 ;I1 = V1-0 /R1
TEXT -240 -64 Left 2 ;I2=(vout-V-)/R2
TEXT -184 -32 Left 2 ;I1=-I2
TEXT -232 0 Left 2 ;V1/R1=-vout/R2
TEXT -240 24 Left 2 ;vout/V1=-R2/R1
TEXT -280 344 Left 2 !.tran 1m
