Version 4
SHEET 1 880 680
WIRE 144 16 32 16
WIRE 336 16 224 16
WIRE -160 144 -240 144
WIRE 32 144 32 16
WIRE 32 144 -80 144
WIRE 80 144 32 144
WIRE 336 176 336 16
WIRE 336 176 240 176
WIRE 432 176 336 176
WIRE 80 208 -48 208
WIRE -48 320 -48 288
FLAG -240 144 0
FLAG -48 320 0
FLAG 432 176 vout
SYMBOL OP_AMP001 144 176 R0
SYMATTR InstName X1
SYMBOL res -64 128 R90
WINDOW 0 0 56 VBottom 2
WINDOW 3 32 56 VTop 2
SYMATTR InstName R1
SYMATTR Value 2.5k
SYMBOL res 240 0 R90
WINDOW 0 0 56 VBottom 2
WINDOW 3 32 56 VTop 2
SYMATTR InstName R2
SYMATTR Value 5k
SYMBOL voltage -48 192 R0
WINDOW 39 0 0 Left 2
SYMATTR InstName V1
SYMATTR Value 5
SYMATTR Value2 AC 0
TEXT -232 -88 Left 2 ;I1 = V- /R1
TEXT -240 -64 Left 2 ;I2=(vout- v-)/R2
TEXT -264 -32 Left 2 ;V1/R1 = (vout -V1)/R2
TEXT -264 0 Left 2 ;Vout-v1 = R2*V1/R1
TEXT -280 24 Left 2 ;Vout/v1 = 1 + (R2/R1)
TEXT -280 344 Left 2 !.tran 1m
