Version 4
SHEET 1 880 680
WIRE 368 -3008 272 -3008
WIRE 544 -3008 448 -3008
WIRE 64 -2976 64 -3008
WIRE 416 -2896 416 -2928
WIRE 64 -2864 64 -2912
WIRE 128 -2864 64 -2864
WIRE 272 -2864 272 -3008
WIRE 272 -2864 208 -2864
WIRE 352 -2864 272 -2864
WIRE 544 -2832 544 -3008
WIRE 544 -2832 496 -2832
WIRE 672 -2832 544 -2832
WIRE 688 -2832 672 -2832
WIRE 352 -2800 48 -2800
WIRE 48 -2768 48 -2800
WIRE 416 -2752 416 -2784
FLAG 416 -2752 0
FLAG 48 -2688 0
FLAG -80 -2960 VDD
FLAG -80 -2880 0
FLAG 416 -2928 VDD
FLAG 64 -3008 0
FLAG 672 -2832 Vout
FLAG 48 -2800 Vin
SYMBOL FINALPROJECT_foldedcascodeBlock 416 -2832 R0
SYMATTR InstName X1
SYMBOL res 464 -3024 R90
WINDOW 0 8 134 VBottom 2
WINDOW 3 -27 57 VTop 2
SYMATTR InstName R1
SYMATTR Value 100MEG
SYMBOL voltage 48 -2784 R0
WINDOW 123 32 84 Left 2
WINDOW 39 0 0 Left 2
WINDOW 3 32 112 Left 2
SYMATTR Value2 AC 1
SYMATTR Value 1
SYMATTR InstName V1
SYMBOL voltage -80 -2976 R0
WINDOW 123 0 0 Left 2
WINDOW 39 0 0 Left 2
SYMATTR InstName VDD
SYMATTR Value 5
SYMBOL cap 48 -2976 R0
SYMATTR InstName C1
SYMATTR Value 1m
SYMBOL res 224 -2880 R90
WINDOW 0 0 56 VBottom 2
WINDOW 3 32 56 VTop 2
SYMATTR InstName R5
SYMATTR Value 1k
TEXT 288 -2664 Left 2 !.ac dec 10 1 200MEG
TEXT 288 -2696 Left 2 !.include C5_models.txt
