Version 4
SHEET 1 880 740
WIRE -304 0 -352 0
WIRE -160 0 -224 0
WIRE 336 16 240 16
WIRE 496 16 416 16
WIRE -352 112 -352 0
WIRE -304 112 -352 112
WIRE -160 144 -160 0
WIRE -128 144 -160 144
WIRE 240 160 240 16
WIRE 320 160 240 160
WIRE -336 176 -352 176
WIRE -304 176 -336 176
WIRE -352 192 -352 176
WIRE 480 192 464 192
WIRE 496 192 496 16
WIRE 496 192 480 192
WIRE 320 224 240 224
FLAG -352 272 0
FLAG -128 144 VAol
FLAG -416 112 0
FLAG -240 192 0
FLAG -544 192 0
FLAG -544 112 VDD
FLAG -240 80 VDD
FLAG 384 240 0
FLAG -336 176 vin
FLAG 480 192 voutp
FLAG 176 160 0
FLAG 240 304 0
FLAG -16 192 0
FLAG -16 112 VDDp
FLAG 384 128 VDDp
SYMBOL voltage -352 176 R0
WINDOW 123 24 124 Left 2
WINDOW 39 0 0 Left 2
SYMATTR Value2 AC 1
SYMATTR InstName V1
SYMATTR Value 2.5
SYMBOL voltage -544 96 R0
WINDOW 123 0 0 Left 2
WINDOW 39 0 0 Left 2
SYMATTR InstName V2
SYMATTR Value {X}
SYMBOL res -320 16 R270
WINDOW 0 32 56 VTop 2
WINDOW 3 0 56 VBottom 2
SYMATTR InstName R1
SYMATTR Value 100MEG
SYMBOL cap -352 96 R90
WINDOW 0 0 32 VBottom 2
WINDOW 3 32 32 VTop 2
SYMATTR InstName C2
SYMATTR Value 10µ
SYMBOL cap 240 144 R90
WINDOW 0 0 32 VBottom 2
WINDOW 3 32 32 VTop 2
SYMATTR InstName C1
SYMATTR Value 10µ
SYMBOL res 320 32 R270
WINDOW 0 32 56 VTop 2
WINDOW 3 0 56 VBottom 2
SYMATTR InstName R2
SYMATTR Value 100MEG
SYMBOL voltage 240 208 R0
SYMATTR InstName V3
SYMATTR Value 2.5
SYMBOL voltage -16 96 R0
WINDOW 123 24 124 Left 2
WINDOW 39 0 0 Left 2
WINDOW 3 24 152 Left 2
SYMATTR Value2 AC 1
SYMATTR InstName V4
SYMATTR Value {X}
SYMBOL FINALPROJECT_foldedcascodeBlock -240 144 R0
SYMATTR InstName X1
SYMBOL FINALPROJECT_foldedcascodeBlock 384 192 R0
SYMATTR InstName X2
TEXT -600 240 Left 2 !.ac dec 10 1k 100G
TEXT -600 272 Left 2 !.step param X 4 6 1
