Version 4
SHEET 1 880 844
WIRE 16 0 -32 0
WIRE 160 0 96 0
WIRE 464 0 368 0
WIRE 624 0 544 0
WIRE -32 112 -32 0
WIRE 16 112 -32 112
WIRE 160 144 160 0
WIRE 192 144 160 144
WIRE 368 144 368 0
WIRE 448 144 368 144
WIRE -16 176 -32 176
WIRE 16 176 -16 176
WIRE 608 176 592 176
WIRE 624 176 624 0
WIRE 624 176 608 176
WIRE -32 192 -32 176
WIRE 448 208 368 208
FLAG -32 272 0
FLAG 192 144 voutd
FLAG -96 112 0
FLAG 80 192 0
FLAG -224 192 0
FLAG -224 112 VDD
FLAG 80 80 VDD
FLAG -16 176 vin
FLAG 608 176 voutp
FLAG 304 144 0
FLAG 368 288 0
FLAG 512 112 VDD
FLAG 512 304 0
SYMBOL voltage -32 176 R0
WINDOW 123 24 124 Left 2
WINDOW 39 0 0 Left 2
SYMATTR Value2 AC 1
SYMATTR InstName V1
SYMATTR Value 2.5
SYMBOL voltage -224 96 R0
WINDOW 123 0 0 Left 2
WINDOW 39 0 0 Left 2
SYMATTR InstName V2
SYMATTR Value {X}
SYMBOL res 0 16 R270
WINDOW 0 32 56 VTop 2
WINDOW 3 0 56 VBottom 2
SYMATTR InstName R1
SYMATTR Value 100MEG
SYMBOL cap -32 96 R90
WINDOW 0 0 32 VBottom 2
WINDOW 3 32 32 VTop 2
SYMATTR InstName C2
SYMATTR Value 10µ
SYMBOL cap 368 128 R90
WINDOW 0 0 32 VBottom 2
WINDOW 3 32 32 VTop 2
SYMATTR InstName C1
SYMATTR Value 10µ
SYMBOL res 448 16 R270
WINDOW 0 32 56 VTop 2
WINDOW 3 0 56 VBottom 2
SYMATTR InstName R2
SYMATTR Value 100MEG
SYMBOL voltage 368 192 R0
WINDOW 123 0 0 Left 2
WINDOW 39 0 0 Left 2
SYMATTR InstName V3
SYMATTR Value 2.5
SYMBOL voltage 512 208 R0
WINDOW 123 24 124 Left 2
WINDOW 39 0 0 Left 2
SYMATTR Value2 AC 1
SYMATTR InstName V4
SYMATTR Value ""
SYMBOL FINALPROJECT_foldedcascodeBlock 80 144 R0
SYMATTR InstName X1
SYMBOL FINALPROJECT_foldedcascodeBlock 512 176 R0
SYMATTR InstName X2
TEXT -304 288 Left 2 !.ac dec 10 1k 100G
TEXT -304 248 Left 2 !.step param X 4 6 1
