Version 4
SHEET 1 932 680
WIRE 672 -80 672 -112
WIRE 400 -48 -48 -48
WIRE -48 144 -48 -48
WIRE 64 144 -48 144
WIRE 400 192 400 -48
WIRE 400 192 336 192
WIRE 480 192 400 192
WIRE 64 224 -32 224
WIRE -32 272 -32 224
WIRE 192 384 192 320
WIRE -32 416 -32 352
FLAG -32 416 0
FLAG 672 -80 0
FLAG 672 -192 V+
FLAG 480 192 vout
FLAG 192 384 0
FLAG 192 64 V+
SYMBOL LM741_opamp 112 208 R0
WINDOW 0 66 -201 Bottom 2
SYMATTR InstName LM741
SYMBOL voltage 672 -208 R0
WINDOW 123 0 0 Left 2
WINDOW 39 0 0 Left 2
SYMATTR InstName Vin1
SYMATTR Value {X}
SYMBOL voltage -32 256 R0
WINDOW 123 0 0 Left 2
WINDOW 39 0 0 Left 2
SYMATTR InstName Vin2
SYMATTR Value PULSE(.5 1.5 200n 10p 10p 250n 2u)
TEXT -612 440 Left 2 !.tran 0 560n 140n
TEXT -24 -120 Left 2 !.step param X 5 10 .5
