Version 4
SHEET 1 932 680
WIRE -512 -80 -512 -128
WIRE 480 -80 480 -112
WIRE 656 -80 656 -112
WIRE -192 -48 -288 -48
WIRE -48 -48 -112 -48
WIRE 144 -48 -48 -48
WIRE 400 -48 224 -48
WIRE -512 32 -512 0
WIRE -512 32 -592 32
WIRE -592 64 -592 32
WIRE -512 64 -512 32
WIRE 192 64 192 32
WIRE -192 144 -288 144
WIRE -48 144 -48 -48
WIRE -48 144 -112 144
WIRE 64 144 -48 144
WIRE 400 192 400 -48
WIRE 400 192 336 192
WIRE 480 192 400 192
WIRE -512 208 -512 144
WIRE 64 224 -32 224
WIRE -32 272 -32 224
WIRE 192 352 192 320
WIRE -32 416 -32 352
FLAG -592 64 0
FLAG -512 -128 V+
FLAG -512 208 V-
FLAG 192 32 V+
FLAG 192 352 V-
FLAG -32 416 0
FLAG 480 -80 0
FLAG 656 -80 0
FLAG 480 -192 Vin1
FLAG 656 -192 Vin2
FLAG -288 -48 Vin1
FLAG -288 144 Vin2
FLAG 480 192 vout
SYMBOL LM741_opamp 112 208 R0
WINDOW 0 159 -86 Bottom 2
SYMATTR InstName LM741
SYMBOL voltage -512 -96 R0
WINDOW 123 0 0 Left 2
WINDOW 39 0 0 Left 2
SYMATTR InstName V1
SYMATTR Value 15
SYMBOL voltage -512 48 R0
WINDOW 123 0 0 Left 2
WINDOW 39 0 0 Left 2
SYMATTR InstName V2
SYMATTR Value 15
SYMBOL res 240 -64 R90
WINDOW 0 0 56 VBottom 2
WINDOW 3 32 56 VTop 2
SYMATTR InstName R1
SYMATTR Value 10k
SYMBOL res -96 128 R90
WINDOW 0 0 56 VBottom 2
WINDOW 3 32 56 VTop 2
SYMATTR InstName R2
SYMATTR Value 10k
SYMBOL res -96 -64 R90
WINDOW 0 0 56 VBottom 2
WINDOW 3 32 56 VTop 2
SYMATTR InstName R3
SYMATTR Value 10k
SYMBOL res -16 368 R180
WINDOW 0 36 76 Left 2
WINDOW 3 36 40 Left 2
SYMATTR InstName R4
SYMATTR Value 1k
SYMBOL voltage 480 -208 R0
WINDOW 123 0 0 Left 2
WINDOW 39 0 0 Left 2
SYMATTR InstName Vin1
SYMATTR Value .001
SYMBOL voltage 656 -208 R0
WINDOW 123 0 0 Left 2
WINDOW 39 0 0 Left 2
SYMATTR InstName Vin2
SYMATTR Value 0.005
TEXT -612 440 Left 2 !.tran 1m
